[General]
network = TestNetwork5
debug-on-errors = true
record-eventlog = true
sim-time-limit = 100s
**.bin-recording = false
**.Flexi_OBS_PacketBurstifier.vector-recording = false
**.Flexi_OBS_PacketDispatcher.vector-recording = false
**.type = 2
**.controlChannelCenter = 2050GHz
**.controlChannelLowerBound = 2000GHz
**.controlChannelUpperBound = 2100GHz
**.protocol = 0
**.spectrumLowerBound = 2200GHz
**.spectrumUpperBound = 2300GHz
**.OEConversionDelay = 0.2ms 
**.switchingDelay = 0.05ms
**.BCPProcessingDelay = 0.1ms
**.EOConversionDelay = 0.2ms 
**.muxType = "Flexi_OBS_BurstMux"
**.iPvXTrafGen.packetLength = 1500B
**.fibreLength = 50 km
**.controlChannelDatarate = 10 Gbps
**.reservationTimerEnabled = true
**.controlChannelCenter1 = 2150 GHz
**.controlChannelLowerBound1 = 2100GHz
**.controlChannelUpperBound1 = 2200GHz
**.controlChannelDatarate1 = 10 Gbps
**.fullDuplex = true
*.flexi_OBS_SuperNode.edgeNode.iPvXTrafGen.sendInterval = 0.5ms
*.flexi_OBS_SuperNode1.edgeNode.iPvXTrafGen.sendInterval = 0.55ms

[Config Greedy]
**.assembler.routerType = "Greedy_OBS_Routing"
**.controlLogicType = "Greedy_CoreControlLogic"
**.wavelengthAssignmentType = 2